Version 4.1
SHEET 1 1024 760
WIRE 368 32 192 32
WIRE 672 32 448 32
WIRE 192 176 192 32
WIRE 192 176 -304 176
WIRE 368 192 288 192
WIRE 288 224 288 192
WIRE 192 240 192 176
WIRE 256 240 192 240
WIRE 416 256 320 256
WIRE 672 256 672 32
WIRE 672 256 416 256
WIRE 32 272 -80 272
WIRE 160 272 96 272
WIRE 256 272 160 272
WIRE -80 288 -80 272
WIRE -304 320 -304 256
WIRE 160 320 160 272
WIRE 416 336 416 256
WIRE 288 368 288 288
WIRE 656 400 656 352
WIRE 944 400 944 336
WIRE -80 432 -80 368
WIRE 160 496 160 400
WIRE 656 544 656 480
WIRE 944 560 944 480
FLAG -80 432 0
FLAG 656 544 0
FLAG 656 352 VSUP
FLAG 368 192 VSUP
FLAG -304 320 0
FLAG 944 336 VCOM
FLAG 944 560 0
FLAG 416 336 OUT
FLAG 288 368 0
FLAG 160 496 VCOM
SYMBOL voltage -80 272 R0
WINDOW 123 0 0 Left 0
WINDOW 39 0 0 Left 0
SYMATTR InstName V1
SYMATTR Value SINE(0 .1 100)
SYMBOL res 464 16 R90
WINDOW 0 0 56 VBottom 2
WINDOW 3 32 56 VTop 2
SYMATTR InstName R3
SYMATTR Value 1k
SYMBOL voltage 656 384 R0
WINDOW 123 0 0 Left 0
WINDOW 39 0 0 Left 0
SYMATTR InstName V3
SYMATTR Value 3.3
SYMBOL res -320 160 R0
SYMATTR InstName R1
SYMATTR Value 10K
SYMBOL OpAmps\\UniversalOpAmp2 288 256 R0
SYMATTR InstName U1
SYMBOL voltage 944 384 R0
WINDOW 123 0 0 Left 0
WINDOW 39 0 0 Left 0
SYMATTR InstName V2
SYMATTR Value 1.65
SYMBOL res 144 304 R0
SYMATTR InstName R2
SYMATTR Value 100K
SYMBOL cap 96 256 R90
WINDOW 0 0 32 VBottom 2
WINDOW 3 32 32 VTop 2
SYMATTR InstName C1
SYMATTR Value 10µ
TEXT -112 744 Left 2 !.tran 1
